
OS:Version,
  {a1cbc1e1-a2a0-4365-903f-aa8974d58288}, !- Handle
  2.1.0;                                  !- Version Identifier

OS:Timestep,
  {b0fa043b-3e91-4705-b798-a26bbea47620}, !- Handle
  6;                                      !- Number of Timesteps per Hour

OS:Surface,
  {536547a8-0ff7-41c8-95f3-7331a5af3d86}, !- Handle
  ER_Exam3_Mult4_Flr_1_Wall_East,         !- Name
  Wall,                                   !- Surface Type
  ,                                       !- Construction Name
  {16b36206-de28-4cc5-a003-3fd3fdc223f7}, !- Space Name
  Outdoors,                               !- Outside Boundary Condition
  ,                                       !- Outside Boundary Condition Object
  SunExposed,                             !- Sun Exposure
  WindExposed,                            !- Wind Exposure
  ,                                       !- View Factor to Ground
  ,                                       !- Number of Vertices
  70.104, 4.572, 4.2683,                  !- X,Y,Z Vertex 1 {m}
  70.104, 4.572, 0,                       !- X,Y,Z Vertex 2 {m}
  70.104, 9.144, 0,                       !- X,Y,Z Vertex 3 {m}
  70.104, 9.144, 4.2683;                  !- X,Y,Z Vertex 4 {m}

OS:Connection,
  {ba23bdb8-dd86-42cd-9a6b-dd4b0ce3e554}, !- Handle
  {b6906a75-2aea-4a4e-946e-efe87c3c80f2}, !- Name
  ,                                       !- Source Object
  11,                                     !- Outlet Port
  ,                                       !- Target Object
  2;                                      !- Inlet Port

OS:Space,
  {16b36206-de28-4cc5-a003-3fd3fdc223f7}, !- Handle
  ER_Exam3_Mult4_Flr_1,                   !- Name
  {315c40b3-41ab-4ac5-8502-53c80eacb1e4}, !- Space Type Name
  ,                                       !- Default Construction Set Name
  ,                                       !- Default Schedule Set Name
  0,                                      !- Direction of Relative North {deg}
  0,                                      !- X Origin {m}
  0,                                      !- Y Origin {m}
  0,                                      !- Z Origin {m}
  {b052430a-95f4-4073-8947-7d99e5a8ab91}, !- Building Story Name
  {cb826993-55eb-47e2-bb86-a980a958ec8b}, !- Thermal Zone Name
  Yes;                                    !- Part of Total Floor Area

OS:Surface,
  {b01f4393-b28d-4f5f-abf9-74b558947393}, !- Handle
  Corridor_NW_Flr_4_Wall_3_East,          !- Name
  Wall,                                   !- Surface Type
  {ab073b3b-8012-4499-875e-103c76c0ed5f}, !- Construction Name
  {4b0352d7-5b15-44a5-874c-f4c860e83600}, !- Space Name
  Adiabatic,                              !- Outside Boundary Condition
  ,                                       !- Outside Boundary Condition Object
  NoSun,                                  !- Sun Exposure
  NoWind,                                 !- Wind Exposure
  ,                                       !- View Factor to Ground
  ,                                       !- Number of Vertices
  65.532, 42.672, 17.0732,                !- X,Y,Z Vertex 1 {m}
  65.532, 42.672, 12.8049,                !- X,Y,Z Vertex 2 {m}
  65.532, 48.768, 12.8049,                !- X,Y,Z Vertex 3 {m}
  65.532, 48.768, 17.0732;                !- X,Y,Z Vertex 4 {m}

OS:Connection,
  {f6b1f296-5c01-46aa-93fd-ad308d3066dc}, !- Handle
  {0f06dee0-bbf1-49a6-bc4d-b1906fe47382}, !- Name
  ,                                       !- Source Object
  11,                                     !- Outlet Port
  ,                                       !- Target Object
  2;                                      !- Inlet Port

OS:Space,
  {4b0352d7-5b15-44a5-874c-f4c860e83600}, !- Handle
  Corridor_NW_Flr_4,                      !- Name
  {c6e9a914-5351-4c81-a114-38be7a677213}, !- Space Type Name
  ,                                       !- Default Construction Set Name
  ,                                       !- Default Schedule Set Name
  0,                                      !- Direction of Relative North {deg}
  0,                                      !- X Origin {m}
  0,                                      !- Y Origin {m}
  0,                                      !- Z Origin {m}
  {d4eef4d4-0d48-4074-ba3f-99c1ae73ec59}, !- Building Story Name
  {a83a1787-6049-4c50-bf0a-a26a3d8ad56b}, !- Thermal Zone Name
  Yes;                                    !- Part of Total Floor Area

OS:Surface,
  {afe5b58f-e6c5-4880-9755-cff32930c37a}, !- Handle
  IC_PatRoom2_Flr_2_Wall_West,            !- Name
  Wall,                                   !- Surface Type
  ,                                       !- Construction Name
  {8ec78f13-57f2-4f0e-9746-f05360546e20}, !- Space Name
  Outdoors,                               !- Outside Boundary Condition
  ,                                       !- Outside Boundary Condition Object
  SunExposed,                             !- Sun Exposure
  WindExposed,                            !- Wind Exposure
  ,                                       !- View Factor to Ground
  ,                                       !- Number of Vertices
  0, 53.34, 8.5366,                       !- X,Y,Z Vertex 1 {m}
  0, 53.34, 4.2683,                       !- X,Y,Z Vertex 2 {m}
  0, 48.768, 4.2683,                      !- X,Y,Z Vertex 3 {m}
  0, 48.768, 8.5366;                      !- X,Y,Z Vertex 4 {m}

OS:Connection,
  {2e9eafa7-6887-4f63-8edd-6b7bf9cfad9b}, !- Handle
  {0fc0c69d-c6ec-45c8-9e3f-d9a75d16a6c0}, !- Name
  ,                                       !- Source Object
  11,                                     !- Outlet Port
  ,                                       !- Target Object
  2;                                      !- Inlet Port

OS:Space,
  {8ec78f13-57f2-4f0e-9746-f05360546e20}, !- Handle
  IC_PatRoom2_Flr_2,                      !- Name
  {4ddc6166-8bd6-4840-8cac-5403dff8bf70}, !- Space Type Name
  ,                                       !- Default Construction Set Name
  ,                                       !- Default Schedule Set Name
  0,                                      !- Direction of Relative North {deg}
  0,                                      !- X Origin {m}
  0,                                      !- Y Origin {m}
  0,                                      !- Z Origin {m}
  {f00cf155-6c1a-4474-aeae-381d43d6a307}, !- Building Story Name
  {62f9ab04-e10f-4e33-94cc-7f29bfaf9264}, !- Thermal Zone Name
  Yes;                                    !- Part of Total Floor Area

OS:Connection,
  {ca5e662f-0c0b-485b-8519-f073cfdc0a69}, !- Handle
  {8ba365ca-2524-4283-83cb-499795b61ad4}, !- Name
  ,                                       !- Source Object
  11,                                     !- Outlet Port
  ,                                       !- Target Object
  2;                                      !- Inlet Port

OS:Space,
  {e141e567-31a6-4982-92aa-a4d8a75baef0}, !- Handle
  ER_Trauma1_Flr_1,                       !- Name
  {15519b92-a72e-4a3b-a48c-3a1ca9c7d116}, !- Space Type Name
  ,                                       !- Default Construction Set Name
  ,                                       !- Default Schedule Set Name
  0,                                      !- Direction of Relative North {deg}
  0,                                      !- X Origin {m}
  0,                                      !- Y Origin {m}
  0,                                      !- Z Origin {m}
  {b052430a-95f4-4073-8947-7d99e5a8ab91}, !- Building Story Name
  {38f5567f-eb57-4dbb-ae26-3c4eb868f383}, !- Thermal Zone Name
  Yes;                                    !- Part of Total Floor Area

OS:Surface,
  {50a9c7ad-5570-4cf0-be6a-bfaa0e539914}, !- Handle
  Corridor_Flr_1_Wall_South,              !- Name
  Wall,                                   !- Surface Type
  ,                                       !- Construction Name
  {1168441b-e4e6-4d44-a00f-18b75cc06a24}, !- Space Name
  Outdoors,                               !- Outside Boundary Condition
  ,                                       !- Outside Boundary Condition Object
  SunExposed,                             !- Sun Exposure
  WindExposed,                            !- Wind Exposure
  ,                                       !- View Factor to Ground
  ,                                       !- Number of Vertices
  28.956, 0, 4.2683,                      !- X,Y,Z Vertex 1 {m}
  28.956, 0, 0,                           !- X,Y,Z Vertex 2 {m}
  39.624, 0, 0,                           !- X,Y,Z Vertex 3 {m}
  39.624, 0, 4.2683;                      !- X,Y,Z Vertex 4 {m}

OS:Connection,
  {8680cc80-7a6d-4b3a-a4f3-35f5af7bc22f}, !- Handle
  {54e063c5-536e-4b32-8e44-bb3c08f8bfda}, !- Name
  ,                                       !- Source Object
  11,                                     !- Outlet Port
  ,                                       !- Target Object
  2;                                      !- Inlet Port

OS:Space,
  {1168441b-e4e6-4d44-a00f-18b75cc06a24}, !- Handle
  Corridor_Flr_1,                         !- Name
  {c6e9a914-5351-4c81-a114-38be7a677213}, !- Space Type Name
  ,                                       !- Default Construction Set Name
  ,                                       !- Default Schedule Set Name
  0,                                      !- Direction of Relative North {deg}
  0,                                      !- X Origin {m}
  0,                                      !- Y Origin {m}
  0,                                      !- Z Origin {m}
  {b052430a-95f4-4073-8947-7d99e5a8ab91}, !- Building Story Name
  {82595708-825f-4874-a7d6-5b8e22d77fd8}, !- Thermal Zone Name
  Yes;                                    !- Part of Total Floor Area

OS:SubSurface,
  {d28f3ce6-4398-4a00-8d74-b7207b6c0309}, !- Handle
  ER_NurseStn_Lobby_Flr_1_Wall_1_East_Window, !- Name
  FixedWindow,                            !- Sub Surface Type
  {2da82769-d5c9-4ec3-bc13-d8481a8390dc}, !- Construction Name
  {8d178f1e-a3c7-42e4-b5f7-438716cdfe5c}, !- Surface Name
  ,                                       !- Outside Boundary Condition Object
  ,                                       !- View Factor to Ground
  ,                                       !- Shading Control Name
  ,                                       !- Frame and Divider Name
  1,                                      !- Multiplier
  ,                                       !- Number of Vertices
  70.104, 14.202, 2.134,                  !- X,Y,Z Vertex 1 {m}
  70.104, 14.202, 0.914,                  !- X,Y,Z Vertex 2 {m}
  70.104, 39.138, 0.914,                  !- X,Y,Z Vertex 3 {m}
  70.104, 39.138, 2.134;                  !- X,Y,Z Vertex 4 {m}

OS:Surface,
  {8d178f1e-a3c7-42e4-b5f7-438716cdfe5c}, !- Handle
  ER_NurseStn_Lobby_Flr_1_Wall_1_East,    !- Name
  Wall,                                   !- Surface Type
  ,                                       !- Construction Name
  {e421471b-c574-4e8a-b7a8-245348dd3775}, !- Space Name
  Outdoors,                               !- Outside Boundary Condition
  ,                                       !- Outside Boundary Condition Object
  SunExposed,                             !- Sun Exposure
  WindExposed,                            !- Wind Exposure
  ,                                       !- View Factor to Ground
  ,                                       !- Number of Vertices
  70.104, 13.716, 4.2683,                 !- X,Y,Z Vertex 1 {m}
  70.104, 13.716, 0,                      !- X,Y,Z Vertex 2 {m}
  70.104, 39.624, 0,                      !- X,Y,Z Vertex 3 {m}
  70.104, 39.624, 4.2683;                 !- X,Y,Z Vertex 4 {m}

OS:Connection,
  {3e6bf527-15bc-43ff-ac95-3592754417e1}, !- Handle
  {f3fd4a56-f1ef-4249-847a-c606fafa6704}, !- Name
  ,                                       !- Source Object
  11,                                     !- Outlet Port
  ,                                       !- Target Object
  2;                                      !- Inlet Port

OS:Space,
  {e421471b-c574-4e8a-b7a8-245348dd3775}, !- Handle
  ER_NurseStn_Lobby_Flr_1,                !- Name
  {6e80a26e-a134-46a8-894f-6cb1a70b7bf2}, !- Space Type Name
  ,                                       !- Default Construction Set Name
  ,                                       !- Default Schedule Set Name
  0,                                      !- Direction of Relative North {deg}
  0,                                      !- X Origin {m}
  0,                                      !- Y Origin {m}
  0,                                      !- Z Origin {m}
  {b052430a-95f4-4073-8947-7d99e5a8ab91}, !- Building Story Name
  {8a6ddd12-dcb9-437c-bdb9-4a4e312d7f98}, !- Thermal Zone Name
  Yes;                                    !- Part of Total Floor Area

OS:Surface,
  {fa9db250-4eaa-4e84-a7c0-b8aee3dc0215}, !- Handle
  ICU_Flr_2_Wall_West,                    !- Name
  Wall,                                   !- Surface Type
  ,                                       !- Construction Name
  {e8233850-2c26-457b-b983-e0a87242a5d7}, !- Space Name
  Outdoors,                               !- Outside Boundary Condition
  ,                                       !- Outside Boundary Condition Object
  SunExposed,                             !- Sun Exposure
  WindExposed,                            !- Wind Exposure
  ,                                       !- View Factor to Ground
  ,                                       !- Number of Vertices
  0, 21.3415, 8.5366,                     !- X,Y,Z Vertex 1 {m}
  0, 21.3415, 4.2683,                     !- X,Y,Z Vertex 2 {m}
  0, 0, 4.2683,                           !- X,Y,Z Vertex 3 {m}
  0, 0, 8.5366;                           !- X,Y,Z Vertex 4 {m}

OS:Connection,
  {0b860b21-947f-4260-8066-dbb37a697374}, !- Handle
  {14a9a1c7-aa2d-48d6-9cdd-08371ff348ff}, !- Name
  ,                                       !- Source Object
  11,                                     !- Outlet Port
  ,                                       !- Target Object
  2;                                      !- Inlet Port

OS:Space,
  {e8233850-2c26-457b-b983-e0a87242a5d7}, !- Handle
  ICU_Flr_2,                              !- Name
  {41c74bd7-3913-40ed-bf67-fb628e067536}, !- Space Type Name
  ,                                       !- Default Construction Set Name
  ,                                       !- Default Schedule Set Name
  0,                                      !- Direction of Relative North {deg}
  0,                                      !- X Origin {m}
  0,                                      !- Y Origin {m}
  0,                                      !- Z Origin {m}
  {f00cf155-6c1a-4474-aeae-381d43d6a307}, !- Building Story Name
  {53d79e31-be12-481b-a857-64f9bb2f091d}, !- Thermal Zone Name
  Yes;                                    !- Part of Total Floor Area

OS:Surface,
  {7ef813b6-eb2c-42a4-a286-6d04e94df410}, !- Handle
  NurseStn_Lobby_Flr_4_Wall_3_West,       !- Name
  Wall,                                   !- Surface Type
  ,                                       !- Construction Name
  {31390124-80ad-4222-b08a-01be2ad61163}, !- Space Name
  Surface,                                !- Outside Boundary Condition
  {50cdc8e0-460e-4ed9-98f3-efb298b147f7}, !- Outside Boundary Condition Object
  NoSun,                                  !- Sun Exposure
  NoWind,                                 !- Wind Exposure
  ,                                       !- View Factor to Ground
  ,                                       !- Number of Vertices
  28.956, 19.812, 17.0732,                !- X,Y,Z Vertex 1 {m}
  28.956, 19.812, 12.8049,                !- X,Y,Z Vertex 2 {m}
  28.956, 10.668, 12.8049,                !- X,Y,Z Vertex 3 {m}
  28.956, 10.668, 17.0732;                !- X,Y,Z Vertex 4 {m}

OS:Connection,
  {7f66ef4c-e88a-4469-84ac-d2c872af167e}, !- Handle
  {77f87f14-6b1e-4f82-9bcc-4ac2a6aa9bac}, !- Name
  ,                                       !- Source Object
  11,                                     !- Outlet Port
  ,                                       !- Target Object
  2;                                      !- Inlet Port

OS:Space,
  {31390124-80ad-4222-b08a-01be2ad61163}, !- Handle
  NurseStn_Lobby_Flr_4,                   !- Name
  {063ff1a0-6cab-4d9a-b650-bfd23a75168c}, !- Space Type Name
  ,                                       !- Default Construction Set Name
  ,                                       !- Default Schedule Set Name
  0,                                      !- Direction of Relative North {deg}
  0,                                      !- X Origin {m}
  0,                                      !- Y Origin {m}
  0,                                      !- Z Origin {m}
  {d4eef4d4-0d48-4074-ba3f-99c1ae73ec59}, !- Building Story Name
  {9ed8e4f5-a125-4e98-ae47-6be6aead3b21}, !- Thermal Zone Name
  Yes;                                    !- Part of Total Floor Area

OS:Surface,
  {1cce1493-7595-436a-bae6-5f99284a3768}, !- Handle
  OR_NurseStn_Lobby_Flr_2_Wall_2_North,   !- Name
  Wall,                                   !- Surface Type
  ,                                       !- Construction Name
  {5fa7a66e-65f8-47fe-850f-4aff5015d62b}, !- Space Name
  Surface,                                !- Outside Boundary Condition
  {be5279e4-d34b-40c7-b768-983039f55c58}, !- Outside Boundary Condition Object
  NoSun,                                  !- Sun Exposure
  NoWind,                                 !- Wind Exposure
  ,                                       !- View Factor to Ground
  ,                                       !- Number of Vertices
  48.768, 22.86, 8.5366,                  !- X,Y,Z Vertex 1 {m}
  48.768, 22.86, 4.2683,                  !- X,Y,Z Vertex 2 {m}
  39.624, 22.86, 4.2683,                  !- X,Y,Z Vertex 3 {m}
  39.624, 22.86, 8.5366;                  !- X,Y,Z Vertex 4 {m}

OS:Connection,
  {256b3194-0009-4522-a1b2-be94e5745a1b}, !- Handle
  {dfc1c96b-4e39-4d92-a951-a7dcb57f4395}, !- Name
  ,                                       !- Source Object
  11,                                     !- Outlet Port
  ,                                       !- Target Object
  2;                                      !- Inlet Port

OS:Space,
  {5fa7a66e-65f8-47fe-850f-4aff5015d62b}, !- Handle
  OR_NurseStn_Lobby_Flr_2,                !- Name
  {063ff1a0-6cab-4d9a-b650-bfd23a75168c}, !- Space Type Name
  ,                                       !- Default Construction Set Name
  ,                                       !- Default Schedule Set Name
  0,                                      !- Direction of Relative North {deg}
  0,                                      !- X Origin {m}
  0,                                      !- Y Origin {m}
  0,                                      !- Z Origin {m}
  {f00cf155-6c1a-4474-aeae-381d43d6a307}, !- Building Story Name
  {fc50fda5-6806-44cd-aa30-a692415c41a7}, !- Thermal Zone Name
  Yes;                                    !- Part of Total Floor Area

OS:Surface,
  {75b7e856-5aee-441b-bd17-0a80eceb799b}, !- Handle
  PatRoom5_Mult10_Flr_3_Wall_West,        !- Name
  Wall,                                   !- Surface Type
  ,                                       !- Construction Name
  {2294b9a3-413c-42bf-8af1-ea3aba2f3837}, !- Space Name
  Surface,                                !- Outside Boundary Condition
  {aa0ec6ad-6024-410f-bd62-3b9e8d9f8f58}, !- Outside Boundary Condition Object
  NoSun,                                  !- Sun Exposure
  NoWind,                                 !- Wind Exposure
  ,                                       !- View Factor to Ground
  ,                                       !- Number of Vertices
  39.624, 53.34, 12.8049,                 !- X,Y,Z Vertex 1 {m}
  39.624, 53.34, 8.5366,                  !- X,Y,Z Vertex 2 {m}
  39.624, 48.768, 8.5366,                 !- X,Y,Z Vertex 3 {m}
  39.624, 48.768, 12.8049;                !- X,Y,Z Vertex 4 {m}

OS:Connection,
  {fecb179e-a394-4c09-9704-ae0179976cf6}, !- Handle
  {70be1f94-2d66-4632-8a57-6c1c9da9c155}, !- Name
  ,                                       !- Source Object
  11,                                     !- Outlet Port
  ,                                       !- Target Object
  2;                                      !- Inlet Port

OS:Space,
  {2294b9a3-413c-42bf-8af1-ea3aba2f3837}, !- Handle
  PatRoom5_Mult10_Flr_3,                  !- Name
  {f740f67b-4b77-4f32-aa4e-d51d96f2b419}, !- Space Type Name
  ,                                       !- Default Construction Set Name
  ,                                       !- Default Schedule Set Name
  0,                                      !- Direction of Relative North {deg}
  0,                                      !- X Origin {m}
  0,                                      !- Y Origin {m}
  0,                                      !- Z Origin {m}
  {0f7c76af-8b81-4a29-8659-1614d6250073}, !- Building Story Name
  {79546dce-1549-4689-b931-c3b3c977a420}, !- Thermal Zone Name
  Yes;                                    !- Part of Total Floor Area

OS:Surface,
  {944fcf1d-2911-419c-a398-62bbc2143ab9}, !- Handle
  Corridor_Flr_2_Wall_South,              !- Name
  Wall,                                   !- Surface Type
  ,                                       !- Construction Name
  {2870f103-d956-457d-b911-977241d8c35a}, !- Space Name
  Outdoors,                               !- Outside Boundary Condition
  ,                                       !- Outside Boundary Condition Object
  SunExposed,                             !- Sun Exposure
  WindExposed,                            !- Wind Exposure
  ,                                       !- View Factor to Ground
  ,                                       !- Number of Vertices
  28.956, 0, 8.5366,                      !- X,Y,Z Vertex 1 {m}
  28.956, 0, 4.2683,                      !- X,Y,Z Vertex 2 {m}
  39.624, 0, 4.2683,                      !- X,Y,Z Vertex 3 {m}
  39.624, 0, 8.5366;                      !- X,Y,Z Vertex 4 {m}

OS:Connection,
  {7aae01a8-0538-4b85-9c71-ef4033f04c3b}, !- Handle
  {aae603d0-da83-4685-8a3e-75f93df9dac2}, !- Name
  ,                                       !- Source Object
  11,                                     !- Outlet Port
  ,                                       !- Target Object
  2;                                      !- Inlet Port

OS:Space,
  {2870f103-d956-457d-b911-977241d8c35a}, !- Handle
  Corridor_Flr_2,                         !- Name
  {c6e9a914-5351-4c81-a114-38be7a677213}, !- Space Type Name
  ,                                       !- Default Construction Set Name
  ,                                       !- Default Schedule Set Name
  0,                                      !- Direction of Relative North {deg}
  0,                                      !- X Origin {m}
  0,                                      !- Y Origin {m}
  0,                                      !- Z Origin {m}
  {f00cf155-6c1a-4474-aeae-381d43d6a307}, !- Building Story Name
  {5e7d4fbe-8323-4a6a-8f22-539ef6d6f816}, !- Thermal Zone Name
  Yes;                                    !- Part of Total Floor Area

OS:Surface,
  {a6a8afc1-01e4-43aa-800d-8230627da69a}, !- Handle
  ER_Trauma2_Flr_1_Floor,                 !- Name
  Floor,                                  !- Surface Type
  {5f525de4-965e-4345-a5f3-fd4d09ffa99f}, !- Construction Name
  {dd7a92d0-924e-4003-b630-567ab7ab69ab}, !- Space Name
  Adiabatic,                              !- Outside Boundary Condition
  ,                                       !- Outside Boundary Condition Object
  NoSun,                                  !- Sun Exposure
  NoWind,                                 !- Wind Exposure
  ,                                       !- View Factor to Ground
  ,                                       !- Number of Vertices
  70.104, 53.34, 0,                       !- X,Y,Z Vertex 1 {m}
  70.104, 48.768, 0,                      !- X,Y,Z Vertex 2 {m}
  64.008, 48.768, 0,                      !- X,Y,Z Vertex 3 {m}
  64.008, 53.34, 0;                       !- X,Y,Z Vertex 4 {m}

OS:Connection,
  {ae697a91-2782-4652-92e9-f74f9cc63efc}, !- Handle
  {db697439-3010-4e0c-804b-51670722a262}, !- Name
  ,                                       !- Source Object
  11,                                     !- Outlet Port
  ,                                       !- Target Object
  2;                                      !- Inlet Port

OS:Space,
  {dd7a92d0-924e-4003-b630-567ab7ab69ab}, !- Handle
  ER_Trauma2_Flr_1,                       !- Name
  {15519b92-a72e-4a3b-a48c-3a1ca9c7d116}, !- Space Type Name
  ,                                       !- Default Construction Set Name
  ,                                       !- Default Schedule Set Name
  0,                                      !- Direction of Relative North {deg}
  0,                                      !- X Origin {m}
  0,                                      !- Y Origin {m}
  0,                                      !- Z Origin {m}
  {b052430a-95f4-4073-8947-7d99e5a8ab91}, !- Building Story Name
  {177173f0-50a7-476b-9ede-65c8a8d6861e}, !- Thermal Zone Name
  Yes;                                    !- Part of Total Floor Area

OS:Surface,
  {cc584830-a067-4325-91bc-26106a56b2c5}, !- Handle
  Corridor_NW_Flr_4_Wall_5_South,         !- Name
  Wall,                                   !- Surface Type
  ,                                       !- Construction Name
  {4b0352d7-5b15-44a5-874c-f4c860e83600}, !- Space Name
  Surface,                                !- Outside Boundary Condition
  {bb22825c-3e5e-4013-a58b-184f0f9bd61e}, !- Outside Boundary Condition Object
  NoSun,                                  !- Sun Exposure
  NoWind,                                 !- Wind Exposure
  ,                                       !- View Factor to Ground
  ,                                       !- Number of Vertices
  4.572, 10.668, 17.0732,                 !- X,Y,Z Vertex 1 {m}
  4.572, 10.668, 12.8049,                 !- X,Y,Z Vertex 2 {m}
  9.144, 10.668, 12.8049,                 !- X,Y,Z Vertex 3 {m}
  9.144, 10.668, 17.0732;                 !- X,Y,Z Vertex 4 {m}

OS:Surface,
  {593ca8ad-9d9c-40de-bee9-c0a04136993f}, !- Handle
  PatRoom3_Mult10_Flr_4_Wall_North,       !- Name
  Wall,                                   !- Surface Type
  {ab073b3b-8012-4499-875e-103c76c0ed5f}, !- Construction Name
  {668fd0fa-a605-4127-8009-961514db81c7}, !- Space Name
  Adiabatic,                              !- Outside Boundary Condition
  ,                                       !- Outside Boundary Condition Object
  NoSun,                                  !- Sun Exposure
  NoWind,                                 !- Wind Exposure
  ,                                       !- View Factor to Ground
  ,                                       !- Number of Vertices
  70.104, 8.992, 17.0732,                 !- X,Y,Z Vertex 1 {m}
  70.104, 8.992, 12.8049,                 !- X,Y,Z Vertex 2 {m}
  65.532, 8.992, 12.8049,                 !- X,Y,Z Vertex 3 {m}
  65.532, 8.992, 17.0732;                 !- X,Y,Z Vertex 4 {m}

OS:Connection,
  {3feffa74-a211-4bc1-9d09-1c06287672a6}, !- Handle
  {bf5ceb8f-ddec-4805-a048-1cc94d656284}, !- Name
  ,                                       !- Source Object
  11,                                     !- Outlet Port
  ,                                       !- Target Object
  2;                                      !- Inlet Port

OS:Space,
  {668fd0fa-a605-4127-8009-961514db81c7}, !- Handle
  PatRoom3_Mult10_Flr_4,                  !- Name
  {f740f67b-4b77-4f32-aa4e-d51d96f2b419}, !- Space Type Name
  ,                                       !- Default Construction Set Name
  ,                                       !- Default Schedule Set Name
  0,                                      !- Direction of Relative North {deg}
  0,                                      !- X Origin {m}
  0,                                      !- Y Origin {m}
  0,                                      !- Z Origin {m}
  {d4eef4d4-0d48-4074-ba3f-99c1ae73ec59}, !- Building Story Name
  {e7ad5a81-cb9e-49cc-95ff-50e42bb6c88b}, !- Thermal Zone Name
  Yes;                                    !- Part of Total Floor Area

OS:Connection,
  {f671ed73-72e9-44cd-8c37-20c987b58e51}, !- Handle
  {cf88a21f-aca8-46d4-9b97-f21d2b5f3d69}, !- Name
  ,                                       !- Source Object
  11,                                     !- Outlet Port
  ,                                       !- Target Object
  2;                                      !- Inlet Port

OS:Space,
  {f4b6e0eb-817b-405c-98f0-c425865851fb}, !- Handle
  NurseStn_Lobby_Flr_3,                   !- Name
  {063ff1a0-6cab-4d9a-b650-bfd23a75168c}, !- Space Type Name
  ,                                       !- Default Construction Set Name
  ,                                       !- Default Schedule Set Name
  0,                                      !- Direction of Relative North {deg}
  0,                                      !- X Origin {m}
  0,                                      !- Y Origin {m}
  0,                                      !- Z Origin {m}
  {0f7c76af-8b81-4a29-8659-1614d6250073}, !- Building Story Name
  {c8cd3acd-eb64-4a44-8d88-bdb4abfa941a}, !- Thermal Zone Name
  Yes;                                    !- Part of Total Floor Area

OS:Connection,
  {26b0b67a-236a-4645-98e8-76128cca8acb}, !- Handle
  {fc646a4d-b9f3-45cd-bbd2-c4f8ec5db979}, !- Name
  ,                                       !- Source Object
  11,                                     !- Outlet Port
  ,                                       !- Target Object
  2;                                      !- Inlet Port

OS:Space,
  {75111445-9889-4e0e-bf8b-33e4ad0474cb}, !- Handle
  Office1_Flr_5,                          !- Name
  {0347dfcd-9550-4b8b-b332-7550c2cad060}, !- Space Type Name
  ,                                       !- Default Construction Set Name
  ,                                       !- Default Schedule Set Name
  0,                                      !- Direction of Relative North {deg}